217

P  -15  9
P  -15  8.5
P  -15  8
P  -15  7.5
P  -15  7
P  -15  6.5
P  -15  6
P  -15  5.5
P  -15  5
P  -15  4.5
P  -15  4
P  -15  3.5
P  -15  3
P  -15  2.5
P  -15  2
P  -15  1.5
P  -15  1
P  -15  0.5
P  -15  0
P  -14.5  0
P  -14  0
P  -13.5  0
P  -13  0
P  -12.5  0
P  -12  0
P  -11.5  0
P  -11  0
P  -10.5  0
P  -10  0
P  -9.5  0
P  -9  0
P  -8.5  0
P  -8  0
P  -7.5  0
P  -7  0
P  -6.5  0
P  -6  0
P  -5.5  0
P  -5  0
P  -4.5  0
P  -4  0
P  -3.5  0
P  -3  0
P  -2.5  0
P  -2  0
P  -1.5  0
P  -1  0
P  -0.5  0
P  0  0
P  0.5  0
P  1  0
P  1.5  0
P  2  0
P  2.5  0
P  3  0
P  3.5  0
P  4  0
P  4.5  0
P  5  0
P  5.5  0
P  6  0
P  6.5  0
P  7  0
P  7.5  0
P  8  0
P  8.5  0
P  9  0
P  9.5  0
P  10  0
P  10.5  0
P  11  0
P  11.5  0
P  12  0
P  12.5  0
P  13  0
P  13.5  0
P  14  0
P  14.5  0
P  15  0
P  15  0.5
P  15  1
P  15  1.5
P  15  2
P  15  2.5
P  15  3
P  15  3.5
P  15  4
P  15  4.5
P  15  5
P  15  5.5
P  15  6
P  15  6.5
P  15  7
P  15  7.5
P  15  8
P  15  8.5
P  15  9
P  -13.5619  3.709
P  -11.7892  3.5647
P  -9.02432  2.32416
P  -10.0432  3.21782
P  -1.19032  3.85362
P  1.68942  2.30603
P  8.75081  3.42799
P  9.57564  3.38484
P  11.7612  3.31692
P  13.4969  3.83094
P  -5.66941  3.48318
P  -10.9422  3.38209
P  -7.37851  1.33145
P  -3.92373  3.18201
P  -1.31753  2.15443
P  0.764749  2.27007
P  4.95061  1.342
P  7.53001  1.32134
P  11.831  2.29512
P  6.10822  3.38657
P  -0.71703  2.94889
P  -8.80138  3.28884
P  -3.2803  3.78631
P  -5.25433  2.41449
P  2.65035  2.28106
P  -3.36006  2.19951
P  4.49697  2.34825
P  4.34427  3.42202
P  6.36699  2.365
P  0.376227  3.27665
P  -9.40984  3.85023
P  -7.78627  3.24427
P  -9.9886  2.22605
P  -2.97635  1.31911
P  -1.76511  3.22751
P  1.40345  3.28841
P  3.27293  1.32864
P  9.10312  2.34368
P  10.5316  3.2451
P  7.86694  3.38702
P  -6.52506  3.19239
P  -12.6695  2.27592
P  -10.9492  1.33245
P  -6.52631  1.31511
P  -4.82746  3.38203
P  5.2187  3.31229
P  6.6348  1.33967
P  10.969  1.32463
P  12.7272  2.33005
P  7.01098  3.35878
P  -2.07104  1.31659
P  -0.176364  3.86782
P  -11.8053  2.39637
P  -11.8138  1.33791
P  -0.181414  2.15954
P  0.688388  1.33339
P  11.8557  1.3288
P  10.9355  2.25997
P  1.97423  3.90416
P  1.55985  1.32467
P  -4.79191  1.33028
P  -8.07164  2.24175
P  -12.6155  3.37386
P  -7.18654  3.80194
P  -7.12955  2.27964
P  7.29035  2.28982
P  11.0982  3.87951
P  12.649  3.45488
P  8.18754  2.33245
P  3.58747  2.30686
P  9.98184  2.29209
P  -5.59879  1.33715
P  -12.6516  1.33446
P  -3.87724  1.31419
P  -1.15304  1.319
P  -0.22914  1.31009
P  4.12833  1.3334
P  12.7171  1.33466
P  5.82507  1.32602
P  -10.9544  2.30455
P  -6.12028  2.23849
P  -10.0404  1.32708
P  -13.6627  2.00115
P  -9.14939  1.3459
P  -4.34532  2.23719
P  3.49513  3.35829
P  9.22569  1.33421
P  13.6648  2.05292
P  10.0834  1.33257
P  5.45707  2.29975
P  -2.74177  3.13297
P  -13.6243  2.94442
P  -13.6081  1.30371
P  -8.30025  1.32745
P  -2.33076  2.2238
P  2.4047  1.33677
P  8.36996  1.34707
P  13.6109  1.31535
P  13.6068  3.03845
P  2.60027  3.28039
P  4  7
P  3.80423  7.30902
P  3.23607  7.58779
P  2.35114  7.80902
P  1.23607  7.95106
P  2.44929e-16  8
P  -1.23607  7.95106
P  -2.35114  7.80902
P  -3.23607  7.58779
P  -3.80423  7.30902
P  -4  7
P  -3.80423  6.69098
P  -3.23607  6.41221
P  -2.35114  6.19098
P  -1.23607  6.04894
P  -7.34788e-16  6
P  1.23607  6.04894
P  2.35114  6.19098
P  3.23607  6.41221
P  3.80423  6.69098
217

P  -15  9
P  -15  8.5
P  -15  8
P  -15  7.5
P  -15  7
P  -15  6.5
P  -15  6
P  -15  5.5
P  -15  5
P  -15  4.5
P  -15  4
P  -15  3.5
P  -15  3
P  -15  2.5
P  -15  2
P  -15  1.5
P  -15  1
P  -15  0.5
P  -15  0
P  -14.5  0
P  -14  0
P  -13.5  0
P  -13  0
P  -12.5  0
P  -12  0
P  -11.5  0
P  -11  0
P  -10.5  0
P  -10  0
P  -9.5  0
P  -9  0
P  -8.5  0
P  -8  0
P  -7.5  0
P  -7  0
P  -6.5  0
P  -6  0
P  -5.5  0
P  -5  0
P  -4.5  0
P  -4  0
P  -3.5  0
P  -3  0
P  -2.5  0
P  -2  0
P  -1.5  0
P  -1  0
P  -0.5  0
P  0  0
P  0.5  0
P  1  0
P  1.5  0
P  2  0
P  2.5  0
P  3  0
P  3.5  0
P  4  0
P  4.5  0
P  5  0
P  5.5  0
P  6  0
P  6.5  0
P  7  0
P  7.5  0
P  8  0
P  8.5  0
P  9  0
P  9.5  0
P  10  0
P  10.5  0
P  11  0
P  11.5  0
P  12  0
P  12.5  0
P  13  0
P  13.5  0
P  14  0
P  14.5  0
P  15  0
P  15  0.5
P  15  1
P  15  1.5
P  15  2
P  15  2.5
P  15  3
P  15  3.5
P  15  4
P  15  4.5
P  15  5
P  15  5.5
P  15  6
P  15  6.5
P  15  7
P  15  7.5
P  15  8
P  15  8.5
P  15  9
P  -13.5617  3.71059
P  -11.789  3.56583
P  -9.02465  2.32568
P  -10.043  3.21933
P  -1.19037  3.85505
P  1.68961  2.30779
P  8.75091  3.42967
P  9.57596  3.3865
P  11.761  3.31841
P  13.4973  3.83247
P  -5.66932  3.48465
P  -10.9423  3.38339
P  -7.37846  1.33294
P  -3.92363  3.18364
P  -1.31783  2.15611
P  0.765043  2.27189
P  4.95085  1.34294
P  7.52952  1.32321
P  11.8316  2.29663
P  6.10828  3.38814
P  -0.717011  2.95077
P  -8.80132  3.29006
P  -3.28038  3.78812
P  -5.25428  2.41611
P  2.64996  2.28268
P  -3.35966  2.20102
P  4.49703  2.34986
P  4.34422  3.42345
P  6.367  2.3665
P  0.376654  3.2779
P  -9.40987  3.85141
P  -7.78629  3.24567
P  -9.98832  2.22758
P  -2.97629  1.32106
P  -1.76511  3.22892
P  1.40329  3.28973
P  3.27296  1.3301
P  9.10271  2.34503
P  10.5316  3.2468
P  7.86679  3.38857
P  -6.52521  3.19387
P  -12.6694  2.27761
P  -10.9492  1.33411
P  -6.52625  1.31754
P  -4.8277  3.38394
P  5.219  3.31394
P  6.63533  1.34091
P  10.969  1.32612
P  12.7274  2.33164
P  7.01071  3.36042
P  -2.07126  1.3186
P  -0.176397  3.86927
P  -11.8054  2.39791
P  -11.8134  1.33954
P  -0.181659  2.1612
P  0.688409  1.33439
P  11.8558  1.32998
P  10.9353  2.26159
P  1.97395  3.90544
P  1.55941  1.32657
P  -4.79177  1.33169
P  -8.07188  2.24339
P  -12.6155  3.37521
P  -7.18672  3.80334
P  -7.12951  2.28104
P  7.29024  2.29114
P  11.0981  3.88095
P  12.6489  3.45613
P  8.18772  2.33404
P  3.58769  2.30865
P  9.98208  2.29348
P  -5.59915  1.33814
P  -12.6516  1.33545
P  -3.87724  1.31623
P  -1.15285  1.32056
P  -0.229199  1.31191
P  4.12813  1.33469
P  12.717  1.33605
P  5.82509  1.32763
P  -10.9541  2.30575
P  -6.12092  2.23961
P  -10.0408  1.32834
P  -13.6625  2.00242
P  -9.14937  1.34688
P  -4.34527  2.23844
P  3.49529  3.35979
P  9.22561  1.33558
P  13.6643  2.05437
P  10.0835  1.33361
P  5.45672  2.30122
P  -2.74174  3.13459
P  -13.624  2.9464
P  -13.6081  1.30536
P  -8.30014  1.32885
P  -2.33048  2.22481
P  2.40485  1.33753
P  8.3701  1.34771
P  13.6112  1.31686
P  13.6072  3.03969
P  2.59993  3.28171
P  4  7
P  3.80423  6.69098
P  3.23607  6.41221
P  2.35114  6.19098
P  1.23607  6.04894
P  2.44929e-16  6
P  -1.23607  6.04894
P  -2.35114  6.19098
P  -3.23607  6.41221
P  -3.80423  6.69098
P  -4  7
P  -3.80423  7.30901
P  -3.23607  7.58778
P  -2.35114  7.80901
P  -1.23607  7.95105
P  -7.34788e-16  8
P  1.23607  7.95105
P  2.35114  7.80901
P  3.23607  7.58778
P  3.80423  7.30901
